/*--------------------------------*- C++ -*----------------------------------*\
| =========                 |                                                 |
| \\      /  F ield         | OpenFOAM: The Open Source CFD Toolbox           |
|  \\    /   O peration     | Version:  5.x                                   |
|   \\  /    A nd           | Web:      www.OpenFOAM.org                      |
|    \\/     M anipulation  |                                                 |
\*---------------------------------------------------------------------------*/
FoamFile
{
    version     2.0;
    format      ascii;
    class       volVectorField;
    location    "0/solid";
    object      U;
}
// * * * * * * * * * * * * * * * * * * * * * * * * * * * * * * * * * * * * * //

dimensions      [0 1 -1 0 0 0 0];

internalField   uniform (0.01 0 0);

boundaryField
{
    maxY
    {
        type            empty;
    }
    minX
    {
        type            calculated;
        value           uniform (0.01 0 0);
    }
    minY
    {
        type            empty;
    }
    minZ
    {
        type            empty;
    }
    maxZ
    {
        type            empty;
    }
    solid_to_flame
    {
        type            calculated;
        value           uniform (0 0 0);
    }
}


// ************************************************************************* //
