/*--------------------------------*- C++ -*----------------------------------*\
| =========                 |                                                 |
| \\      /  F ield         | OpenFOAM: The Open Source CFD Toolbox           |
|  \\    /   O peration     | Version:  5                                     |
|   \\  /    A nd           | Web:      www.OpenFOAM.org                      |
|    \\/     M anipulation  |                                                 |
\*---------------------------------------------------------------------------*/
FoamFile
{
    version     2.0;
    format      ascii;
    class       dictionary;
    object      blockMeshDict;
}
// * * * * * * * * * * * * * * * * * * * * * * * * * * * * * * * * * * * * * //

convertToMeters 1;

vertices
(
	( 0.0  0.0  0.0)
	( 1.0  0.0  0.0)
	( 1.0  0.5  0.0)
	( 0.0  0.5  0.0)
 
	( 0.0  0.0  0.25)
	( 1.0  0.0  0.25)
	( 1.0  0.5  0.25)
	( 0.0  0.5  0.25)

	( 0.0  0.0  0.5)
	( 1.0  0.0  0.5)
	( 1.0  0.5  0.5)
	( 0.0  0.5  0.5)
);

blocks
(
    hex (0 1 2 3 4 5 6 7) (10 5 5) simpleGrading (1 1 1)
	hex (4 5 6 7 8 9 10 11) (10 5 5) simpleGrading (1 1 1)
);

edges
(
);

boundary
(
    s1minX
    {
        type wall;
        faces
        (
            (0 4 7 3)
        );
    }
	s1maxX  
    {
        type wall;
        faces
        (
            (1 2 6 5)
        );
    }
    s1minY
    {
        type wall;
        faces
        (
            (0 1 5 4)
        );
    }
    s1maxY
    {
        type wall;
        faces
        (
            (3 7 6 2)
        );
    }
    s1minZ
    {
        type wall;
        faces
        (
            (0 3 2 1)
        );
    }
//    s1maxZ
//    {
//        type wall;
//        faces
//        (
//            (4 5 6 7)
//        );
//    }
	s2minX
	{
		type wall;
		faces
		(
			(4 8 11 7)
		);
	}
	s2maxX
	{
		type wall;
		faces
		(
			(5 6 10 9)
		);
	}
	s2minY
	{
		type wall;
		faces
		(
			(4 5 9 8)
		);
	}
	s2maxY
	{
		type wall;
		faces
		(
			(7 11 10 6)
		);
	}
//	s2minZ
//	{
//		type wall;
//		faces
//		(
//			(4 7 6 5)
//		);
//	}
	s2maxZ
	{
		type wall;
		faces
		(
			(8 9 10 11)
		);
	}
);

mergePatchPairs
(
);

// ************************************************************************* //
