/*--------------------------------*- C++ -*----------------------------------*\
| =========                 |                                                 |
| \\      /  F ield         | OpenFOAM: The Open Source CFD Toolbox           |
|  \\    /   O peration     | Version:  5                                     |
|   \\  /    A nd           | Web:      www.OpenFOAM.org                      |
|    \\/     M anipulation  |                                                 |
\*---------------------------------------------------------------------------*/
FoamFile
{
    version     2.0;
    format      ascii;
    class       volScalarField;
    object      p;
}
// * * * * * * * * * * * * * * * * * * * * * * * * * * * * * * * * * * * * * //

dimensions      [1 -1 -2 0 0 0 0];

internalField   uniform 101325;

boundaryField
{
    combustorInlet
    {
        type            zeroGradient;
    }

    combustorOutlet
    {
        type            waveTransmissive;
        psi             thermo:psi;
        gamma           1.4;
        fieldInf        101325;
        lInf            0.3;
        value           $internalField;
    }

    combustorWall
    {
        type            zeroGradient;
    }

    combustorFrontWall
    {
        type            zeroGradient;
    }

    combustorExitWall
    {
        type            zeroGradient;
    }

    constrictionChannel
    {
        type            zeroGradient;
    }
}

// ************************************************************************* //
