/*--------------------------------*- C++ -*----------------------------------*\
| =========                 |                                                 |
| \\      /  F ield         | OpenFOAM: The Open Source CFD Toolbox           |
|  \\    /   O peration     | Version:  5.x                                   |
|   \\  /    A nd           | Web:      www.OpenFOAM.org                      |
|    \\/     M anipulation  |                                                 |
\*---------------------------------------------------------------------------*/
FoamFile
{
    version     2.0;
    format      ascii;
    class       volScalarField;
    location    "0/fluid";
    object      epsilon;
}
// * * * * * * * * * * * * * * * * * * * * * * * * * * * * * * * * * * * * * //

dimensions      [ 0 2 -3 0 0 0 0 ];

internalField   uniform 0.01;

boundaryField
{
    minX
    {
        type            fixedValue;
        value           uniform 0.01;
    }
    maxX
    {
        type            inletOutlet;
        value           uniform 0.01;
        inletValue      uniform 0.01;
    }
    minY
    {
        type            epsilonWallFunction;
        value           uniform 0.01;
    }
    maxY
    {
        type            epsilonWallFunction;
        value           uniform 0.01;
    }
    maxZ
    {
        type            epsilonWallFunction;
        value           uniform 0.01;
    }
    fluid_to_solid
    {
        type            epsilonWallFunction;
        value           uniform 0.01;
    }
}


// ************************************************************************* //
