/*--------------------------------*- C++ -*----------------------------------*\
| =========                 |                                                 |
| \\      /  F ield         | OpenFOAM: The Open Source CFD Toolbox           |
|  \\    /   O peration     | Version:  5.x                                   |
|   \\  /    A nd           | Web:      www.OpenFOAM.org                      |
|    \\/     M anipulation  |                                                 |
\*---------------------------------------------------------------------------*/
FoamFile
{
    version     2.0;
    format      ascii;
    class       volVectorField;
    location    "0/fluid";
    object      U;
}
// * * * * * * * * * * * * * * * * * * * * * * * * * * * * * * * * * * * * * //

dimensions      [ 0 1 -1 0 0 0 0 ];

internalField   uniform ( 1 0 0 );

boundaryField
{
    minX
    {
        type            fixedValue;
        value           $internalField;
    }
    maxX
    {
        type            pressureInletOutletVelocity;
        value           $internalField;
    }
    minY
    {
        type            noSlip;
        value           uniform ( 0.01 0 0 );
    }
    maxY
    {
        type            noSlip;
        value           uniform ( 0.01 0 0 );
    }
    maxZ
    {
        type            zeroGradient;
        value           uniform ( 0.01 0 0 );
    }
    fluid_to_solid
    {
        type            noSlip;
        value           uniform ( 0 0 0 );
    }
}


// ************************************************************************* //
