/*--------------------------------*- C++ -*----------------------------------*\
| =========                 |                                                 |
| \\      /  F ield         | OpenFOAM: The Open Source CFD Toolbox           |
|  \\    /   O peration     | Version:  5                                     |
|   \\  /    A nd           | Web:      www.OpenFOAM.org                      |
|    \\/     M anipulation  |                                                 |
\*---------------------------------------------------------------------------*/
FoamFile
{
    version     2.0;
    format      ascii;
    class       dictionary;
    location    "system";
    object      fvSolution;
}
// * * * * * * * * * * * * * * * * * * * * * * * * * * * * * * * * * * * * * //

solvers
{
    p
    {
        solver           PCG;
        preconditioner   DIC;
        tolerance        1e-9;
        relTol           0.1;
    }

    pFinal
    {
        $p;
        tolerance        1e-9;
        relTol           0.0;
    }

    "(U|h|k|epsilon|equiH|cema_edge)"
    {
        solver          PBiCGStab;
        preconditioner  DILU;
        tolerance       1e-06;
        relTol          0.1;
    }

    "(U|h|k|epsilon|equiH|cema_edge)Final"
    {
        solver          PBiCGStab;
        preconditioner  DILU;
        tolerance       1e-06;
        relTol          0;
    }

}

PIMPLE
{
    nOuterCorrectors 1;
    nCorrectors     10;
    nNonOrthogonalCorrectors 0;
    pRefCell        1001;
    pRefValue       0;
}


// ************************************************************************* //
