/*--------------------------------*- C++ -*----------------------------------*\
| =========                 |                                                 |
| \\      /  F ield         | OpenFOAM: The Open Source CFD Toolbox           |
|  \\    /   O peration     | Version:  5                                     |
|   \\  /    A nd           | Web:      www.OpenFOAM.org                      |
|    \\/     M anipulation  |                                                 |
\*---------------------------------------------------------------------------*/
FoamFile
{
    version     2.0;
    format      ascii;
    class       volScalarField;
    object      k;
}
// * * * * * * * * * * * * * * * * * * * * * * * * * * * * * * * * * * * * * //

dimensions      [0 2 -2 0 0 0 0];

internalField   uniform 0;

boundaryField
{
    combustorInlet
    {
        type            fixedValue;
        value           uniform 2e-05;
    }

    combustorOutlet
    {
        type            inletOutlet;
        inletValue      uniform 0;
        value           uniform 0;
    }

    combustorWall
    {
        type            fixedValue;
        value           uniform 0;
    }

    combustorFrontWall
    {
        type            fixedValue;
        value           uniform 0;
    }

    combustorExitWall
    {
        type            fixedValue;
        value           uniform 0;
    }

    constrictionChannel
    {
        type            fixedValue;
        value           uniform 0;
    }
}

// ************************************************************************* //
