/*--------------------------------*- C++ -*----------------------------------*\
| =========                 |                                                 |
| \\      /  F ield         | OpenFOAM: The Open Source CFD Toolbox           |
|  \\    /   O peration     | Version:  5                                     |
|   \\  /    A nd           | Web:      www.OpenFOAM.org                      |
|    \\/     M anipulation  |                                                 |
\*---------------------------------------------------------------------------*/
FoamFile
{
    version     2.0;
    format      ascii;
    class       dictionary;
    object      blockMeshDict;
}
// * * * * * * * * * * * * * * * * * * * * * * * * * * * * * * * * * * * * * //

convertToMeters 0.01; // Convert the existing coordinates to cm

vertices
(
    // Plane 0
    (0 0 0)
    (1 0 0)
    (10 0 0)
    (10 3.75 0)
    (1 3.75 0)
    (0 3.75 0)
    // Plane 1
    (0 0 0.1)
    (1 0 0.1)
    (10 0 0.1)
    (10 3.75 0.1)
    (1 3.75 0.1)
    (0 3.75 0.1)
);

blocks
(
    // Block preceding the wedge
    hex (0 1 4 5 6 7 10 11) (40 15 1) simpleGrading (1 1 1)
    hex (1 2 3 4 7 8 9 10) (360 15 1) simpleGrading (1 1 1)
//    hex (0 1 2 3 4 5 6 7) (40 15 1) simpleGrading (1 1 1)
);

edges
(
);

boundary
(
    inflowOblique
    {
        type inflow;
        faces
        (
            (0 6 11 5)
        );
    }
    inflowTop
    { 
        type inflow;
        faces
        (
            (5 11 10 4)
            (4 10 9 3)
        );
    }
    frontAndBack
    {
        type empty;
        faces
        (
            (0 5 4 1)
            (1 4 3 2)
            (6 7 10 11)
            (7 8 9 10)
        );
    }
    outflowBack
    {
        type outflow;
        faces
        (
            (3 9 8 2)
        );
    }
    outflowBottom
    {
        type outflow;
        faces
        (
            (0 1 6 7)
        );
    }
    bottomWall
    {
        type wall;
        faces
        (
            (1 2 8 7)
        );
    }
);

mergePatchPairs
(
);

// ************************************************************************* //
