/*--------------------------------*- C++ -*----------------------------------*\
| =========                 |                                                 |
| \\      /  F ield         | OpenFOAM: The Open Source CFD Toolbox           |
|  \\    /   O peration     | Version:  5                                     |
|   \\  /    A nd           | Web:      www.OpenFOAM.org                      |
|    \\/     M anipulation  |                                                 |
\*---------------------------------------------------------------------------*/
FoamFile
{
    version     2.0;
    format      ascii;
    class       dictionary;
    object      changeDictionaryDict;
}
// * * * * * * * * * * * * * * * * * * * * * * * * * * * * * * * * * * * * * //


T
{
    internalField   uniform 660;

    boundaryField
    {
		maxX
		{
			type			fixedValue;
			value			uniform 660;
		}
        ".*"
        {
            type            zeroGradient;
        }

        "solid2_to_.*"
        {
            type            compressible::turbulentTemperatureCoupledBaffleMixed;
            Tnbr            T;
            kappaMethod     solidThermo;
//            value           uniform 660;
        }
    }
}

epsilon
{
    internalField   uniform 0.01;

    boundaryField
    {
        ".*"
        {
            type            epsilonWallFunction;
            value           uniform 0.01;
        }

        minX
        {
            type            fixedValue;
            value           uniform 0.01;
        }
        maxX
        {
            type            inletOutlet;
            inletValue      uniform 0.01;
            value           uniform 0.01;
        }
    }
}

k
{
    internalField   uniform 0.1;

    boundaryField
    {
        ".*"
        {
            type            kqRWallFunction;
            value           uniform 0.1;
        }

        minX
        {
            type            fixedValue;
            value           uniform 0.1;
        }
        maxX
        {
            type            inletOutlet;
            inletValue      uniform 0.1;
            value           uniform 0.1;
        }
    }
}

p_rgh
{
    internalField   uniform 1e5;

    boundaryField
    {
        ".*"
        {
            type            fixedFluxPressure;
            value           uniform 1e5;
        }

        maxX
        {
            type            fixedValue;
            value           uniform 1e5;
        }
    }
}

p
{
    internalField   uniform 1e5;

    boundaryField
    {
        ".*"
        {
            type            calculated;
            value           uniform 1e5;
        }

        maxX
        {
            type            calculated;
            value           uniform 1e5;
        }
    }
}

// ************************************************************************* //
