/*--------------------------------*- C++ -*----------------------------------*\
| =========                 |                                                 |
| \\      /  F ield         | OpenFOAM: The Open Source CFD Toolbox           |
|  \\    /   O peration     | Version:  5                                     |
|   \\  /    A nd           | Web:      www.OpenFOAM.org                      |
|    \\/     M anipulation  |                                                 |
\*---------------------------------------------------------------------------*/
FoamFile
{
    version     2.0;
    format      ascii;
    class       volScalarField;
    location    "0";
    object      k;
}
// * * * * * * * * * * * * * * * * * * * * * * * * * * * * * * * * * * * * * //

dimensions      [0 2 -2 0 0 0 0];

internalField   uniform 1;

boundaryField
{
    inflowOblique
    {
        type            turbulentIntensityKineticEnergyInlet;
        intensity       0.08;
        value           uniform 1;
    }
    inflowTop
    {
        type            turbulentIntensityKineticEnergyInlet;
        intensity       0.02;
        value           uniform 1;
    }
    frontAndBack
    {
        type empty;
    }
    outflowBack
    {
        type            inletOutlet;
        inletValue      uniform 1;
        value           uniform 1;
    }
    outflowBottom
    {
        type            inletOutlet;
        inletValue      uniform 1;
        value           uniform 1;
    }
    bottomWall
    {
        type            kqRWallFunction;
        value           uniform 1;
    }
}


// ************************************************************************* //
