/*--------------------------------*- C++ -*----------------------------------*\
| =========                 |                                                 |
| \\      /  F ield         | OpenFOAM: The Open Source CFD Toolbox           |
|  \\    /   O peration     | Version:  5                                     |
|   \\  /    A nd           | Web:      www.OpenFOAM.org                      |
|    \\/     M anipulation  |                                                 |
\*---------------------------------------------------------------------------*/
FoamFile
{
    version     2.0;
    format      ascii;
    class       volScalarField;
    location    "0";
    object      N2;
}
// * * * * * * * * * * * * * * * * * * * * * * * * * * * * * * * * * * * * * //

dimensions      [0 0 0 0 0 0 0];

internalField   uniform 0.763149;

boundaryField
{
    inflowOblique
    {
        type            fixedValue;
        value           uniform 0.763149;
    }
    inflowTop
    {
        type            fixedValue;
        value           uniform 0.763149;
    }
    frontAndBack
    {
        type            empty;
    }
    outflowBack
    {
        type            inletOutlet;
        inletValue      uniform 0.763149;
        value           uniform 0.763149;
    }
    outflowBottom
    {
        type            inletOutlet;
        inletValue      uniform 0.763149;
        value           uniform 0.763149;
    }
    bottomWall
    {
        type            zeroGradient;
    }
}


// ************************************************************************* //
