/*--------------------------------*- C++ -*----------------------------------*\
| =========                 |                                                 |
| \\      /  F ield         | OpenFOAM: The Open Source CFD Toolbox           |
|  \\    /   O peration     | Version:  5                                     |
|   \\  /    A nd           | Web:      www.OpenFOAM.org                      |
|    \\/     M anipulation  |                                                 |
\*---------------------------------------------------------------------------*/
FoamFile
{
    version     2.0;
    format      ascii;
    class       volVectorField;
    object      U;
}
// * * * * * * * * * * * * * * * * * * * * * * * * * * * * * * * * * * * * * //

dimensions      [0 1 -1 0 0 0 0];

internalField   uniform (0 0 0);

boundaryField
{
    inflowOblique
    {
        type fixedValue;
        value uniform (2555.0 -1084.0 0.0);
    }
    inflowTop
    { 
        type fixedValue;
        value uniform (2555.0 -1084.0 0.0);
    }
    frontAndBack
    {
        type empty;
    }
    outflowBack
    {
        type pressureInletOutletVelocity;
        value           uniform (0 0 0);
    }
    outflowBottom
    {
        type pressureInletOutletVelocity;
        value           uniform (0 0 0);
    }
    bottomWall
    {
        type slip;
    }
}

// ************************************************************************* //
